version 2
1
9
.tran 200m 1 0{return}{return}{return}.kicad adjustpaths{return}.save all{return}.probe alli
0
